394 536 -999 # HYD package for  MODFLOW-NWT, generated by Flopy.
BAS HD I 1 244.11000061035156 2596.570068359375 00400037_uwsp 
BAS HD I 2 244.11000061035156 2596.570068359375 00400037_uwsp 
BAS HD I 3 244.11000061035156 2596.570068359375 00400037_uwsp 
BAS HD I 4 244.11000061035156 2596.570068359375 00400037_uwsp 
BAS HD I 5 244.11000061035156 2596.570068359375 00400037_uwsp 
BAS HD I 1 2607.029052734375 1598.7701416015625 10051235_lk 
BAS HD I 2 2607.029052734375 1598.7701416015625 10051235_lk 
BAS HD I 3 2607.029052734375 1598.7701416015625 10051235_lk 
BAS HD I 4 2607.029052734375 1598.7701416015625 10051235_lk 
BAS HD I 5 2607.029052734375 1598.7701416015625 10051235_lk 
BAS HD I 1 1558.437744140625 438.3267822265625 10051238_lk 
BAS HD I 2 1558.437744140625 438.3267822265625 10051238_lk 
BAS HD I 3 1558.437744140625 438.3267822265625 10051238_lk 
BAS HD I 4 1558.437744140625 438.3267822265625 10051238_lk 
BAS HD I 5 1558.437744140625 438.3267822265625 10051238_lk 
BAS HD I 1 2829.581787109375 2356.562744140625 5940089321701 
BAS HD I 2 2829.581787109375 2356.562744140625 5940089321701 
BAS HD I 3 2829.581787109375 2356.562744140625 5940089321701 
BAS HD I 4 2829.581787109375 2356.562744140625 5940089321701 
BAS HD I 5 2829.581787109375 2356.562744140625 5940089321701 
BAS HD I 1 814.6560668945312 2430.24267578125 5943089334801 
BAS HD I 2 814.6560668945312 2430.24267578125 5943089334801 
BAS HD I 3 814.6560668945312 2430.24267578125 5943089334801 
BAS HD I 4 814.6560668945312 2430.24267578125 5943089334801 
BAS HD I 5 814.6560668945312 2430.24267578125 5943089334801 
BAS HD I 1 2500.989013671875 2503.5556640625 5946089323001 
BAS HD I 2 2500.989013671875 2503.5556640625 5946089323001 
BAS HD I 3 2500.989013671875 2503.5556640625 5946089323001 
BAS HD I 4 2500.989013671875 2503.5556640625 5946089323001 
BAS HD I 5 2500.989013671875 2503.5556640625 5946089323001 
BAS HD I 1 1478.31005859375 1997.1597900390625 ad154 
BAS HD I 2 1478.31005859375 1997.1597900390625 ad154 
BAS HD I 3 1478.31005859375 1997.1597900390625 ad154 
BAS HD I 4 1478.31005859375 1997.1597900390625 ad154 
BAS HD I 5 1478.31005859375 1997.1597900390625 ad154 
BAS HD I 1 2272.10107421875 1468.4261474609375 as281 
BAS HD I 2 2272.10107421875 1468.4261474609375 as281 
BAS HD I 3 2272.10107421875 1468.4261474609375 as281 
BAS HD I 4 2272.10107421875 1468.4261474609375 as281 
BAS HD I 5 2272.10107421875 1468.4261474609375 as281 
BAS HD I 1 1681.31005859375 1796.4698486328125 da063 
BAS HD I 2 1681.31005859375 1796.4698486328125 da063 
BAS HD I 3 1681.31005859375 1796.4698486328125 da063 
BAS HD I 4 1681.31005859375 1796.4698486328125 da063 
BAS HD I 5 1681.31005859375 1796.4698486328125 da063 
BAS HD I 1 1681.5218505859375 1754.6895751953125 de519 
BAS HD I 2 1681.5218505859375 1754.6895751953125 de519 
BAS HD I 3 1681.5218505859375 1754.6895751953125 de519 
BAS HD I 4 1681.5218505859375 1754.6895751953125 de519 
BAS HD I 5 1681.5218505859375 1754.6895751953125 de519 
BAS HD I 1 835.1878051757812 1678.1661376953125 dr137 
BAS HD I 2 835.1878051757812 1678.1661376953125 dr137 
BAS HD I 3 835.1878051757812 1678.1661376953125 dr137 
BAS HD I 4 835.1878051757812 1678.1661376953125 dr137 
BAS HD I 5 835.1878051757812 1678.1661376953125 dr137 
BAS HD I 1 1256.78955078125 1419.846923828125 eq361 
BAS HD I 2 1256.78955078125 1419.846923828125 eq361 
BAS HD I 3 1256.78955078125 1419.846923828125 eq361 
BAS HD I 4 1256.78955078125 1419.846923828125 eq361 
BAS HD I 5 1256.78955078125 1419.846923828125 eq361 
BAS HD I 1 2292.059814453125 1597.8798828125 fu501 
BAS HD I 2 2292.059814453125 1597.8798828125 fu501 
BAS HD I 3 2292.059814453125 1597.8798828125 fu501 
BAS HD I 4 2292.059814453125 1597.8798828125 fu501 
BAS HD I 5 2292.059814453125 1597.8798828125 fu501 
BAS HD I 1 1990.3870849609375 2625.43701171875 ie431 
BAS HD I 2 1990.3870849609375 2625.43701171875 ie431 
BAS HD I 3 1990.3870849609375 2625.43701171875 ie431 
BAS HD I 4 1990.3870849609375 2625.43701171875 ie431 
BAS HD I 5 1990.3870849609375 2625.43701171875 ie431 
BAS HD I 1 2537.593994140625 2620.2626953125 ie432 
BAS HD I 2 2537.593994140625 2620.2626953125 ie432 
BAS HD I 3 2537.593994140625 2620.2626953125 ie432 
BAS HD I 4 2537.593994140625 2620.2626953125 ie432 
BAS HD I 5 2537.593994140625 2620.2626953125 ie432 
BAS HD I 1 174.80799865722656 2336.789794921875 la249 
BAS HD I 2 174.80799865722656 2336.789794921875 la249 
BAS HD I 3 174.80799865722656 2336.789794921875 la249 
BAS HD I 4 174.80799865722656 2336.789794921875 la249 
BAS HD I 5 174.80799865722656 2336.789794921875 la249 
BAS HD I 1 1266.659912109375 1367.9925537109375 lw001 
BAS HD I 2 1266.659912109375 1367.9925537109375 lw001 
BAS HD I 3 1266.659912109375 1367.9925537109375 lw001 
BAS HD I 4 1266.659912109375 1367.9925537109375 lw001 
BAS HD I 5 1266.659912109375 1367.9925537109375 lw001 
BAS HD I 1 1766.1417236328125 2467.264892578125 mm634 
BAS HD I 2 1766.1417236328125 2467.264892578125 mm634 
BAS HD I 3 1766.1417236328125 2467.264892578125 mm634 
BAS HD I 4 1766.1417236328125 2467.264892578125 mm634 
BAS HD I 5 1766.1417236328125 2467.264892578125 mm634 
BAS HD I 1 813.9810180664062 2475.76416015625 mt196 
BAS HD I 2 813.9810180664062 2475.76416015625 mt196 
BAS HD I 3 813.9810180664062 2475.76416015625 mt196 
BAS HD I 4 813.9810180664062 2475.76416015625 mt196 
BAS HD I 5 813.9810180664062 2475.76416015625 mt196 
BAS HD I 1 1830.3594970703125 2015.8372802734375 nw247 
BAS HD I 2 1830.3594970703125 2015.8372802734375 nw247 
BAS HD I 3 1830.3594970703125 2015.8372802734375 nw247 
BAS HD I 4 1830.3594970703125 2015.8372802734375 nw247 
BAS HD I 5 1830.3594970703125 2015.8372802734375 nw247 
BAS HD I 1 1948.4815673828125 1721.8056640625 nw287 
BAS HD I 2 1948.4815673828125 1721.8056640625 nw287 
BAS HD I 3 1948.4815673828125 1721.8056640625 nw287 
BAS HD I 4 1948.4815673828125 1721.8056640625 nw287 
BAS HD I 5 1948.4815673828125 1721.8056640625 nw287 
BAS HD I 1 1522.9945068359375 1710.9195556640625 nw294 
BAS HD I 2 1522.9945068359375 1710.9195556640625 nw294 
BAS HD I 3 1522.9945068359375 1710.9195556640625 nw294 
BAS HD I 4 1522.9945068359375 1710.9195556640625 nw294 
BAS HD I 5 1522.9945068359375 1710.9195556640625 nw294 
BAS HD I 1 1518.1429443359375 1053.8841552734375 nz417 
BAS HD I 2 1518.1429443359375 1053.8841552734375 nz417 
BAS HD I 3 1518.1429443359375 1053.8841552734375 nz417 
BAS HD I 4 1518.1429443359375 1053.8841552734375 nz417 
BAS HD I 5 1518.1429443359375 1053.8841552734375 nz417 
BAS HD I 1 1518.0767822265625 1073.3310546875 nz418 
BAS HD I 2 1518.0767822265625 1073.3310546875 nz418 
BAS HD I 3 1518.0767822265625 1073.3310546875 nz418 
BAS HD I 4 1518.0767822265625 1073.3310546875 nz418 
BAS HD I 5 1518.0767822265625 1073.3310546875 nz418 
BAS HD I 1 2198.322021484375 1016.8424682617188 oe658 
BAS HD I 2 2198.322021484375 1016.8424682617188 oe658 
BAS HD I 3 2198.322021484375 1016.8424682617188 oe658 
BAS HD I 4 2198.322021484375 1016.8424682617188 oe658 
BAS HD I 5 2198.322021484375 1016.8424682617188 oe658 
BAS HD I 1 1637.854248046875 1920.695068359375 oe661 
BAS HD I 2 1637.854248046875 1920.695068359375 oe661 
BAS HD I 3 1637.854248046875 1920.695068359375 oe661 
BAS HD I 4 1637.854248046875 1920.695068359375 oe661 
BAS HD I 5 1637.854248046875 1920.695068359375 oe661 
BAS HD I 1 1618.152099609375 1020.5352783203125 oe662 
BAS HD I 2 1618.152099609375 1020.5352783203125 oe662 
BAS HD I 3 1618.152099609375 1020.5352783203125 oe662 
BAS HD I 4 1618.152099609375 1020.5352783203125 oe662 
BAS HD I 5 1618.152099609375 1020.5352783203125 oe662 
BAS HD I 1 2293.75 1198.4398193359375 oe664 
BAS HD I 2 2293.75 1198.4398193359375 oe664 
BAS HD I 3 2293.75 1198.4398193359375 oe664 
BAS HD I 4 2293.75 1198.4398193359375 oe664 
BAS HD I 5 2293.75 1198.4398193359375 oe664 
BAS HD I 1 2145.968505859375 1693.520751953125 oe677 
BAS HD I 2 2145.968505859375 1693.520751953125 oe677 
BAS HD I 3 2145.968505859375 1693.520751953125 oe677 
BAS HD I 4 2145.968505859375 1693.520751953125 oe677 
BAS HD I 5 2145.968505859375 1693.520751953125 oe677 
BAS HD I 1 1710.6175537109375 1609.21484375 og359 
BAS HD I 2 1710.6175537109375 1609.21484375 og359 
BAS HD I 3 1710.6175537109375 1609.21484375 og359 
BAS HD I 4 1710.6175537109375 1609.21484375 og359 
BAS HD I 5 1710.6175537109375 1609.21484375 og359 
BAS HD I 1 1209.4114990234375 1226.052001953125 psnt01_gw 
BAS HD I 2 1209.4114990234375 1226.052001953125 psnt01_gw 
BAS HD I 3 1209.4114990234375 1226.052001953125 psnt01_gw 
BAS HD I 4 1209.4114990234375 1226.052001953125 psnt01_gw 
BAS HD I 5 1209.4114990234375 1226.052001953125 psnt01_gw 
BAS HD I 1 2136.905517578125 1005.6068115234375 psnt03_gw 
BAS HD I 2 2136.905517578125 1005.6068115234375 psnt03_gw 
BAS HD I 3 2136.905517578125 1005.6068115234375 psnt03_gw 
BAS HD I 4 2136.905517578125 1005.6068115234375 psnt03_gw 
BAS HD I 5 2136.905517578125 1005.6068115234375 psnt03_gw 
BAS HD I 1 2255.3056640625 1496.0810546875 psnt05_gw 
BAS HD I 2 2255.3056640625 1496.0810546875 psnt05_gw 
BAS HD I 3 2255.3056640625 1496.0810546875 psnt05_gw 
BAS HD I 4 2255.3056640625 1496.0810546875 psnt05_gw 
BAS HD I 5 2255.3056640625 1496.0810546875 psnt05_gw 
BAS HD I 1 1975.66455078125 865.8845825195312 psnt06_gw 
BAS HD I 2 1975.66455078125 865.8845825195312 psnt06_gw 
BAS HD I 3 1975.66455078125 865.8845825195312 psnt06_gw 
BAS HD I 4 1975.66455078125 865.8845825195312 psnt06_gw 
BAS HD I 5 1975.66455078125 865.8845825195312 psnt06_gw 
BAS HD I 1 1760.12744140625 975.4473876953125 psnt07_gw 
BAS HD I 2 1760.12744140625 975.4473876953125 psnt07_gw 
BAS HD I 3 1760.12744140625 975.4473876953125 psnt07_gw 
BAS HD I 4 1760.12744140625 975.4473876953125 psnt07_gw 
BAS HD I 5 1760.12744140625 975.4473876953125 psnt07_gw 
BAS HD I 1 1547.0548095703125 838.0089721679688 psnt08_gw 
BAS HD I 2 1547.0548095703125 838.0089721679688 psnt08_gw 
BAS HD I 3 1547.0548095703125 838.0089721679688 psnt08_gw 
BAS HD I 4 1547.0548095703125 838.0089721679688 psnt08_gw 
BAS HD I 5 1547.0548095703125 838.0089721679688 psnt08_gw 
BAS HD I 1 1289.28173828125 838.5097045898438 psnt09_gw 
BAS HD I 2 1289.28173828125 838.5097045898438 psnt09_gw 
BAS HD I 3 1289.28173828125 838.5097045898438 psnt09_gw 
BAS HD I 4 1289.28173828125 838.5097045898438 psnt09_gw 
BAS HD I 5 1289.28173828125 838.5097045898438 psnt09_gw 
BAS HD I 1 2310.884521484375 1306.4560546875 psnt10_gw 
BAS HD I 2 2310.884521484375 1306.4560546875 psnt10_gw 
BAS HD I 3 2310.884521484375 1306.4560546875 psnt10_gw 
BAS HD I 4 2310.884521484375 1306.4560546875 psnt10_gw 
BAS HD I 5 2310.884521484375 1306.4560546875 psnt10_gw 
BAS HD I 1 1977.5130615234375 1701.1483154296875 psnt11_gw 
BAS HD I 2 1977.5130615234375 1701.1483154296875 psnt11_gw 
BAS HD I 3 1977.5130615234375 1701.1483154296875 psnt11_gw 
BAS HD I 4 1977.5130615234375 1701.1483154296875 psnt11_gw 
BAS HD I 5 1977.5130615234375 1701.1483154296875 psnt11_gw 
BAS HD I 1 1693.1292724609375 1646.28515625 psnt14_gw 
BAS HD I 2 1693.1292724609375 1646.28515625 psnt14_gw 
BAS HD I 3 1693.1292724609375 1646.28515625 psnt14_gw 
BAS HD I 4 1693.1292724609375 1646.28515625 psnt14_gw 
BAS HD I 5 1693.1292724609375 1646.28515625 psnt14_gw 
BAS HD I 1 1133.75244140625 976.8489990234375 psnt15_gw 
BAS HD I 2 1133.75244140625 976.8489990234375 psnt15_gw 
BAS HD I 3 1133.75244140625 976.8489990234375 psnt15_gw 
BAS HD I 4 1133.75244140625 976.8489990234375 psnt15_gw 
BAS HD I 5 1133.75244140625 976.8489990234375 psnt15_gw 
BAS HD I 1 1464.1204833984375 1582.8468017578125 psnt16_gw 
BAS HD I 2 1464.1204833984375 1582.8468017578125 psnt16_gw 
BAS HD I 3 1464.1204833984375 1582.8468017578125 psnt16_gw 
BAS HD I 4 1464.1204833984375 1582.8468017578125 psnt16_gw 
BAS HD I 5 1464.1204833984375 1582.8468017578125 psnt16_gw 
BAS HD I 1 1601.120849609375 1757.8514404296875 qs013 
BAS HD I 2 1601.120849609375 1757.8514404296875 qs013 
BAS HD I 3 1601.120849609375 1757.8514404296875 qs013 
BAS HD I 4 1601.120849609375 1757.8514404296875 qs013 
BAS HD I 5 1601.120849609375 1757.8514404296875 qs013 
BAS HD I 1 1651.5242919921875 1861.888427734375 rb457 
BAS HD I 2 1651.5242919921875 1861.888427734375 rb457 
BAS HD I 3 1651.5242919921875 1861.888427734375 rb457 
BAS HD I 4 1651.5242919921875 1861.888427734375 rb457 
BAS HD I 5 1651.5242919921875 1861.888427734375 rb457 
BAS HD I 1 2878.410888671875 2429.8515625 ri969 
BAS HD I 2 2878.410888671875 2429.8515625 ri969 
BAS HD I 3 2878.410888671875 2429.8515625 ri969 
BAS HD I 4 2878.410888671875 2429.8515625 ri969 
BAS HD I 5 2878.410888671875 2429.8515625 ri969 
BAS HD I 1 2244.93603515625 1185.63330078125 rl168 
BAS HD I 2 2244.93603515625 1185.63330078125 rl168 
BAS HD I 3 2244.93603515625 1185.63330078125 rl168 
BAS HD I 4 2244.93603515625 1185.63330078125 rl168 
BAS HD I 5 2244.93603515625 1185.63330078125 rl168 
BAS HD I 1 1707.8721923828125 1845.9874267578125 sh457 
BAS HD I 2 1707.8721923828125 1845.9874267578125 sh457 
BAS HD I 3 1707.8721923828125 1845.9874267578125 sh457 
BAS HD I 4 1707.8721923828125 1845.9874267578125 sh457 
BAS HD I 5 1707.8721923828125 1845.9874267578125 sh457 
BAS HD I 1 1446.1004638671875 1688.4676513671875 sh490 
BAS HD I 2 1446.1004638671875 1688.4676513671875 sh490 
BAS HD I 3 1446.1004638671875 1688.4676513671875 sh490 
BAS HD I 4 1446.1004638671875 1688.4676513671875 sh490 
BAS HD I 5 1446.1004638671875 1688.4676513671875 sh490 
BAS HD I 1 567.2783203125 2512.282470703125 sn248 
BAS HD I 2 567.2783203125 2512.282470703125 sn248 
BAS HD I 3 567.2783203125 2512.282470703125 sn248 
BAS HD I 4 567.2783203125 2512.282470703125 sn248 
BAS HD I 5 567.2783203125 2512.282470703125 sn248 
BAS HD I 1 1753.220458984375 1621.8714599609375 tg103 
BAS HD I 2 1753.220458984375 1621.8714599609375 tg103 
BAS HD I 3 1753.220458984375 1621.8714599609375 tg103 
BAS HD I 4 1753.220458984375 1621.8714599609375 tg103 
BAS HD I 5 1753.220458984375 1621.8714599609375 tg103 
BAS HD I 1 2250.755126953125 1269.87744140625 tg110 
BAS HD I 2 2250.755126953125 1269.87744140625 tg110 
BAS HD I 3 2250.755126953125 1269.87744140625 tg110 
BAS HD I 4 2250.755126953125 1269.87744140625 tg110 
BAS HD I 5 2250.755126953125 1269.87744140625 tg110 
BAS HD I 1 1595.423583984375 1715.6158447265625 tl572 
BAS HD I 2 1595.423583984375 1715.6158447265625 tl572 
BAS HD I 3 1595.423583984375 1715.6158447265625 tl572 
BAS HD I 4 1595.423583984375 1715.6158447265625 tl572 
BAS HD I 5 1595.423583984375 1715.6158447265625 tl572 
BAS HD I 1 1567.8907470703125 1719.88525390625 tl595 
BAS HD I 2 1567.8907470703125 1719.88525390625 tl595 
BAS HD I 3 1567.8907470703125 1719.88525390625 tl595 
BAS HD I 4 1567.8907470703125 1719.88525390625 tl595 
BAS HD I 5 1567.8907470703125 1719.88525390625 tl595 
BAS HD I 1 1746.870361328125 1732.599853515625 tp085 
BAS HD I 2 1746.870361328125 1732.599853515625 tp085 
BAS HD I 3 1746.870361328125 1732.599853515625 tp085 
BAS HD I 4 1746.870361328125 1732.599853515625 tp085 
BAS HD I 5 1746.870361328125 1732.599853515625 tp085 
BAS HD I 1 375.39520263671875 2734.80615234375 tp608 
BAS HD I 2 375.39520263671875 2734.80615234375 tp608 
BAS HD I 3 375.39520263671875 2734.80615234375 tp608 
BAS HD I 4 375.39520263671875 2734.80615234375 tp608 
BAS HD I 5 375.39520263671875 2734.80615234375 tp608 
BAS HD I 1 2214.674072265625 1169.89111328125 tz534 
BAS HD I 2 2214.674072265625 1169.89111328125 tz534 
BAS HD I 3 2214.674072265625 1169.89111328125 tz534 
BAS HD I 4 2214.674072265625 1169.89111328125 tz534 
BAS HD I 5 2214.674072265625 1169.89111328125 tz534 
BAS HD I 1 3063.572998046875 2760.941162109375 tz549 
BAS HD I 2 3063.572998046875 2760.941162109375 tz549 
BAS HD I 3 3063.572998046875 2760.941162109375 tz549 
BAS HD I 4 3063.572998046875 2760.941162109375 tz549 
BAS HD I 5 3063.572998046875 2760.941162109375 tz549 
BAS HD I 1 2240.2421875 1418.1591796875 uf771 
BAS HD I 2 2240.2421875 1418.1591796875 uf771 
BAS HD I 3 2240.2421875 1418.1591796875 uf771 
BAS HD I 4 2240.2421875 1418.1591796875 uf771 
BAS HD I 5 2240.2421875 1418.1591796875 uf771 
BAS HD I 1 1595.421142578125 1651.1024169921875 ut698 
BAS HD I 2 1595.421142578125 1651.1024169921875 ut698 
BAS HD I 3 1595.421142578125 1651.1024169921875 ut698 
BAS HD I 4 1595.421142578125 1651.1024169921875 ut698 
BAS HD I 5 1595.421142578125 1651.1024169921875 ut698 
BAS HD I 1 1406.067626953125 1579.87109375 uw018 
BAS HD I 2 1406.067626953125 1579.87109375 uw018 
BAS HD I 3 1406.067626953125 1579.87109375 uw018 
BAS HD I 4 1406.067626953125 1579.87109375 uw018 
BAS HD I 5 1406.067626953125 1579.87109375 uw018 
BAS HD I 1 2008.425048828125 1726.84033203125 uz434 
BAS HD I 2 2008.425048828125 1726.84033203125 uz434 
BAS HD I 3 2008.425048828125 1726.84033203125 uz434 
BAS HD I 4 2008.425048828125 1726.84033203125 uz434 
BAS HD I 5 2008.425048828125 1726.84033203125 uz434 
BAS HD I 1 2003.02734375 1733.368896484375 uz442 
BAS HD I 2 2003.02734375 1733.368896484375 uz442 
BAS HD I 3 2003.02734375 1733.368896484375 uz442 
BAS HD I 4 2003.02734375 1733.368896484375 uz442 
BAS HD I 5 2003.02734375 1733.368896484375 uz442 
BAS HD I 1 1613.7603759765625 1665.580322265625 vf165 
BAS HD I 2 1613.7603759765625 1665.580322265625 vf165 
BAS HD I 3 1613.7603759765625 1665.580322265625 vf165 
BAS HD I 4 1613.7603759765625 1665.580322265625 vf165 
BAS HD I 5 1613.7603759765625 1665.580322265625 vf165 
BAS HD I 1 1548.52001953125 1723.0206298828125 vh092 
BAS HD I 2 1548.52001953125 1723.0206298828125 vh092 
BAS HD I 3 1548.52001953125 1723.0206298828125 vh092 
BAS HD I 4 1548.52001953125 1723.0206298828125 vh092 
BAS HD I 5 1548.52001953125 1723.0206298828125 vh092 
BAS HD I 1 797.0618896484375 2503.564697265625 vj837 
BAS HD I 2 797.0618896484375 2503.564697265625 vj837 
BAS HD I 3 797.0618896484375 2503.564697265625 vj837 
BAS HD I 4 797.0618896484375 2503.564697265625 vj837 
BAS HD I 5 797.0618896484375 2503.564697265625 vj837 
BAS HD I 1 1559.8465576171875 2634.7431640625 wm570 
BAS HD I 2 1559.8465576171875 2634.7431640625 wm570 
BAS HD I 3 1559.8465576171875 2634.7431640625 wm570 
BAS HD I 4 1559.8465576171875 2634.7431640625 wm570 
BAS HD I 5 1559.8465576171875 2634.7431640625 wm570 
BAS HD I 1 1839.7935791015625 1565.8167724609375 wp698 
BAS HD I 2 1839.7935791015625 1565.8167724609375 wp698 
BAS HD I 3 1839.7935791015625 1565.8167724609375 wp698 
BAS HD I 4 1839.7935791015625 1565.8167724609375 wp698 
BAS HD I 5 1839.7935791015625 1565.8167724609375 wp698 
BAS HD I 1 1327.2464599609375 1579.888916015625 wy360 
BAS HD I 2 1327.2464599609375 1579.888916015625 wy360 
BAS HD I 3 1327.2464599609375 1579.888916015625 wy360 
BAS HD I 4 1327.2464599609375 1579.888916015625 wy360 
BAS HD I 5 1327.2464599609375 1579.888916015625 wy360 
BAS HD I 1 1578.901123046875 1663.6798095703125 wy369 
BAS HD I 2 1578.901123046875 1663.6798095703125 wy369 
BAS HD I 3 1578.901123046875 1663.6798095703125 wy369 
BAS HD I 4 1578.901123046875 1663.6798095703125 wy369 
BAS HD I 5 1578.901123046875 1663.6798095703125 wy369 
BAS HD I 1 1470.1590576171875 2633.285888671875 wz276 
BAS HD I 2 1470.1590576171875 2633.285888671875 wz276 
BAS HD I 3 1470.1590576171875 2633.285888671875 wz276 
BAS HD I 4 1470.1590576171875 2633.285888671875 wz276 
BAS HD I 5 1470.1590576171875 2633.285888671875 wz276 
BAS HD I 2 1530.8948974609375 1105.7049560546875 wz292 
BAS HD I 3 1530.8948974609375 1105.7049560546875 wz292 
BAS HD I 4 1530.8948974609375 1105.7049560546875 wz292 
BAS HD I 5 1530.8948974609375 1105.7049560546875 wz292 
BAS HD I 1 1706.792724609375 1739.8795166015625 xh356 
BAS HD I 2 1706.792724609375 1739.8795166015625 xh356 
BAS HD I 3 1706.792724609375 1739.8795166015625 xh356 
BAS HD I 4 1706.792724609375 1739.8795166015625 xh356 
BAS HD I 5 1706.792724609375 1739.8795166015625 xh356 
BAS HD I 1 1550.322998046875 1660.1875 xq289 
BAS HD I 2 1550.322998046875 1660.1875 xq289 
BAS HD I 3 1550.322998046875 1660.1875 xq289 
BAS HD I 4 1550.322998046875 1660.1875 xq289 
BAS HD I 5 1550.322998046875 1660.1875 xq289 
BAS HD I 1 2306.989990234375 1943.8916015625 xq291 
BAS HD I 2 2306.989990234375 1943.8916015625 xq291 
BAS HD I 3 2306.989990234375 1943.8916015625 xq291 
BAS HD I 4 2306.989990234375 1943.8916015625 xq291 
BAS HD I 5 2306.989990234375 1943.8916015625 xq291 
BAS HD I 1 340.50750732421875 1782.8353271484375 xs845 
BAS HD I 2 340.50750732421875 1782.8353271484375 xs845 
BAS HD I 3 340.50750732421875 1782.8353271484375 xs845 
BAS HD I 4 340.50750732421875 1782.8353271484375 xs845 
BAS HD I 5 340.50750732421875 1782.8353271484375 xs845 
BAS HD I 1 2331.5517578125 1379.6298828125 xu002 
BAS HD I 2 2331.5517578125 1379.6298828125 xu002 
BAS HD I 3 2331.5517578125 1379.6298828125 xu002 
BAS HD I 4 2331.5517578125 1379.6298828125 xu002 
BAS HD I 5 2331.5517578125 1379.6298828125 xu002 
BAS HD I 1 89.90589904785156 2331.514404296875 xy603 
BAS HD I 2 89.90589904785156 2331.514404296875 xy603 
BAS HD I 3 89.90589904785156 2331.514404296875 xy603 
BAS HD I 4 89.90589904785156 2331.514404296875 xy603 
BAS HD I 5 89.90589904785156 2331.514404296875 xy603 
BAS HD I 1 100.03400421142578 2232.23388671875 xz625 
BAS HD I 2 100.03400421142578 2232.23388671875 xz625 
BAS HD I 3 100.03400421142578 2232.23388671875 xz625 
BAS HD I 4 100.03400421142578 2232.23388671875 xz625 
BAS HD I 5 100.03400421142578 2232.23388671875 xz625 
BAS HD I 1 1642.6756591796875 1672.19921875 yq987 
BAS HD I 2 1642.6756591796875 1672.19921875 yq987 
BAS HD I 3 1642.6756591796875 1672.19921875 yq987 
BAS HD I 4 1642.6756591796875 1672.19921875 yq987 
BAS HD I 5 1642.6756591796875 1672.19921875 yq987 
