BEGIN options
  DIGITS  10
  PRINT_INPUT
END options

BEGIN continuous  FILEOUT  head.obs
  462047091202901  HEAD  1 286 65
  462047091202901  HEAD  2 286 65
  462047091202901  HEAD  3 286 65
  462047091202901  HEAD  4 286 65
  462047091202901  HEAD  5 286 65
  462050091202901  HEAD  1 285 65
  462050091202901  HEAD  2 285 65
  462050091202901  HEAD  3 285 65
  462050091202901  HEAD  4 285 65
  462050091202901  HEAD  5 285 65
  463635090481101  HEAD  1 87 327
  463635090481101  HEAD  2 87 327
  463635090481101  HEAD  3 87 327
  463635090481101  HEAD  4 87 327
  463635090481101  HEAD  5 87 327
  463527090434201  HEAD  1 100 369
  463527090434201  HEAD  2 100 369
  463527090434201  HEAD  3 100 369
  463527090434201  HEAD  4 100 369
  463527090434201  HEAD  5 100 369
  464026090525801  HEAD  1 42 290
  464026090525801  HEAD  2 42 290
  464026090525801  HEAD  3 42 290
  464026090525801  HEAD  4 42 290
  464026090525801  HEAD  5 42 290
  461109090373001  HEAD  1 394 430
  461109090373001  HEAD  2 394 430
  461109090373001  HEAD  3 394 430
  461109090373001  HEAD  4 394 430
  461109090373001  HEAD  5 394 430
