# DIS package for  MODFLOW-NWT, generated by Flopy.
         5       409       614      2         4         1
  0  0  0  0  0
CONSTANT    5.000000E+02                           #delr                          
CONSTANT    5.000000E+02                           #delc                          
OPEN/CLOSE                  external/mean_elevs.dat               1     (FREE) -1 model_top                     
OPEN/CLOSE                       external/botm1.dat               1     (FREE) -1 botm layer 1                  
OPEN/CLOSE                       external/botm2.dat               1     (FREE) -1 botm layer 2                  
OPEN/CLOSE                       external/botm3.dat               1     (FREE) -1 botm layer 3                  
OPEN/CLOSE                       external/botm4.dat               1     (FREE) -1 botm layer 4                  
OPEN/CLOSE                       external/botm5.dat               1     (FREE) -1 botm layer 5                  
      1.000000             1  1.000000  SS 
      1.000000             1  1.000000  TR 
